New England/PSSE Cases/MasterCase.RAW
 0,    100.00, 33, 0, 0, 60.00       / December 28, 2017 10:35:21; Simulator Version 19; BuildDate 2016_5_26


    1,'1           ', 345.0000,2,   1,   1,   1,1.05101,  -0.6573, 1.10000, 0.98000, 1.10000, 0.98000
    2,'2           ', 345.0000,1,   1,   1,   1,1.04647,  -8.7362, 1.06000, 0.92000, 1.06000, 0.92000
    3,'3           ', 138.0000,2,   1,   1,   1,1.02000,  -1.9724, 1.10000, 0.98000, 1.10000, 0.98000
    4,'4           ', 138.0000,1,   1,   1,   1,1.02725,  -8.0721, 1.06000, 0.92000, 1.06000, 0.92000
    5,'5           ', 230.0000,1,   1,   1,   1,1.01560,  -5.3017, 1.06000, 0.92000, 1.06000, 0.92000
    6,'6           ', 138.0000,1,   1,   1,   1,1.01737,  -3.5651, 1.06000, 0.92000, 1.06000, 0.92000
    7,'7           ', 138.0000,2,   1,   1,   1,1.02000,  -3.2810, 1.10000, 0.98000, 1.10000, 0.98000
    8,'8           ', 230.0000,2,   1,   1,   1,1.02000,  -2.3258, 1.10000, 0.98000, 1.10000, 0.98000
    9,'9           ', 345.0000,1,   1,   1,   1,1.03437,  -3.4050, 1.06000, 0.92000, 1.06000, 0.92000
   10,'10          ', 138.0000,3,   1,   1,   1,1.02000,   0.0000, 1.10000, 0.98000, 1.10000, 0.98000
   11,'11          ', 138.0000,1,   1,   1,   1,1.01976,  -0.6376, 1.06000, 0.92000, 1.06000, 0.92000
   12,'12          ', 138.0000,1,   1,   1,   1,1.02005,  -1.0857, 1.06000, 0.92000, 1.06000, 0.92000
   13,'13          ', 345.0000,1,   1,   1,   1,1.02179,  -2.2131, 1.06000, 0.92000, 1.06000, 0.92000
   14,'14          ', 230.0000,1,   1,   1,   1,1.02315,  -6.1503, 1.06000, 0.92000, 1.06000, 0.92000
   15,'15          ', 230.0000,1,   1,   1,   1,1.01737,  -7.8668, 1.06000, 0.92000, 1.06000, 0.92000
   16,'16          ', 138.0000,1,   1,   1,   1,1.01974, -11.6071, 1.06000, 0.92000, 1.06000, 0.92000
   17,'17          ', 138.0000,1,   1,   1,   1,1.01198, -12.5543, 1.06000, 0.92000, 1.06000, 0.92000
   18,'18          ', 138.0000,1,   1,   1,   1,1.00742,  -9.6648, 1.06000, 0.92000, 1.06000, 0.92000
   19,'19          ', 138.0000,1,   1,   1,   1,1.02057, -10.1177, 1.06000, 0.92000, 1.06000, 0.92000
   20,'20          ',  69.0000,1,   1,   1,   1,1.01473,  -6.1891, 1.06000, 0.92000, 1.06000, 0.92000
   21,'21          ', 138.0000,1,   1,   1,   1,1.01877, -13.3631, 1.06000, 0.92000, 1.06000, 0.92000
   22,'22          ', 230.0000,1,   1,   1,   1,1.02151,  -7.1748, 1.06000, 0.92000, 1.06000, 0.92000
   23,'23          ', 230.0000,1,   1,   1,   1,1.01794,  -6.4432, 1.06000, 0.92000, 1.06000, 0.92000
   24,'24          ', 230.0000,2,   1,   1,   1,1.02000,  -7.9029, 1.10000, 0.98000, 1.10000, 0.98000
   25,'25          ', 230.0000,1,   1,   1,   1,1.02642,  -8.6051, 1.06000, 0.92000, 1.06000, 0.92000
   26,'26          ', 345.0000,2,   1,   1,   1,1.02895, -15.4502, 1.10000, 0.98000, 1.10000, 0.98000
   27,'27          ', 230.0000,1,   1,   1,   1,1.02684, -15.8856, 1.06000, 0.92000, 1.06000, 0.92000
   28,'28          ', 138.0000,2,   1,   1,   1,1.02000,  -8.3868, 1.10000, 0.98000, 1.10000, 0.98000
   29,'29          ', 138.0000,1,   1,   1,   1,1.02045,  -3.5824, 1.06000, 0.92000, 1.06000, 0.92000
   30,'30          ',  14.0000,2,   1,   1,   1,1.03229,  -7.7765, 1.10000, 0.98000, 1.10000, 0.98000
   31,'31          ',  14.0000,2,   1,   1,   1,1.02000,   0.6358, 1.10000, 0.98000, 1.10000, 0.98000
   32,'32          ',  14.0000,2,   1,   1,   1,1.02000,   2.8605, 1.10000, 0.98000, 1.10000, 0.98000
   33,'33          ',  14.0000,2,   1,   1,   1,1.02000,  -8.8316, 1.10000, 0.98000, 1.10000, 0.98000
   34,'34          ',  14.0000,2,   1,   1,   1,1.02000,  -2.0197, 1.10000, 0.98000, 1.10000, 0.98000
   35,'35          ',  14.0000,2,   1,   1,   1,1.02000,  -3.0287, 1.10000, 0.98000, 1.10000, 0.98000
   36,'36          ',  14.0000,2,   1,   1,   1,1.02000,  -3.0895, 1.10000, 0.98000, 1.10000, 0.98000
   37,'37          ',  14.0000,2,   1,   1,   1,1.02000,  -5.8584, 1.10000, 0.98000, 1.10000, 0.98000
   38,'38          ',  14.0000,2,   1,   1,   1,1.02000,  -0.7300, 1.10000, 0.98000, 1.10000, 0.98000
   39,'39          ', 345.0000,1,   1,   1,   1,1.03998, -13.6342, 1.06000, 0.92000, 1.06000, 0.92000
   40,'40          ', 345.0000,1,   1,   1,   1,1.02657, -16.3474, 1.06000, 0.92000, 1.06000, 0.92000
   41,'41          ', 345.0000,1,   1,   1,   1,1.02992, -15.7298, 1.06000, 0.92000, 1.06000, 0.92000
   42,'42          ', 345.0000,1,   1,   1,   1,1.03843, -16.3270, 1.06000, 0.92000, 1.06000, 0.92000
   43,'43          ', 345.0000,1,   1,   1,   1,1.02998, -15.6447, 1.06000, 0.92000, 1.06000, 0.92000
   44,'44          ', 230.0000,1,   1,   1,   1,1.01932,  -4.0291, 1.06000, 0.92000, 1.06000, 0.92000
   45,'45          ', 345.0000,1,   1,   1,   1,1.01960,  -3.1193, 1.06000, 0.92000, 1.06000, 0.92000
   46,'46          ', 138.0000,1,   1,   1,   1,1.00978,  -7.3355, 1.06000, 0.92000, 1.06000, 0.92000
   47,'47          ', 138.0000,1,   1,   1,   1,1.00417, -10.3525, 1.06000, 0.92000, 1.06000, 0.92000
   48,'48          ', 345.0000,1,   1,   1,   1,1.02028,  -8.3775, 1.06000, 0.92000, 1.06000, 0.92000
   49,'49          ', 138.0000,2,   1,   1,   1,1.02000,  -3.4699, 1.10000, 0.98000, 1.10000, 0.98000
   50,'50          ', 138.0000,1,   1,   1,   1,1.02077,  -6.7064, 1.06000, 0.92000, 1.06000, 0.92000
   51,'51          ', 138.0000,1,   1,   1,   1,1.01812,  -8.2594, 1.06000, 0.92000, 1.06000, 0.92000
   52,'52          ', 345.0000,2,   1,   1,   1,1.02000,  -2.3020, 1.10000, 0.98000, 1.10000, 0.98000
   53,'53          ', 138.0000,1,   1,   1,   1,1.01353,  -8.1729, 1.06000, 0.92000, 1.06000, 0.92000
   54,'54          ', 230.0000,2,   1,   1,   1,1.02000,  -1.8735, 1.10000, 0.98000, 1.10000, 0.98000
   55,'55          ', 230.0000,1,   1,   1,   1,1.01864,  -4.9405, 1.06000, 0.92000, 1.06000, 0.92000
   56,'56          ', 345.0000,2,   1,   1,   1,1.02000,  -6.0063, 1.10000, 0.98000, 1.10000, 0.98000
   57,'57          ', 138.0000,1,   1,   1,   1,1.01192,  -9.7567, 1.06000, 0.92000, 1.06000, 0.92000
   58,'58          ', 345.0000,1,   1,   1,   1,1.01353,  -6.5562, 1.06000, 0.92000, 1.06000, 0.92000
   59,'59          ', 345.0000,1,   1,   1,   1,1.01984,  -7.9324, 1.06000, 0.92000, 1.06000, 0.92000
   60,'60          ', 138.0000,1,   1,   1,   1,1.01687, -10.0788, 1.06000, 0.92000, 1.06000, 0.92000
   61,'61          ', 230.0000,1,   1,   1,   1,1.01868,  -9.1953, 1.06000, 0.92000, 1.06000, 0.92000
   62,'62          ', 345.0000,1,   1,   1,   1,1.00973,  -7.1501, 1.06000, 0.92000, 1.06000, 0.92000
   63,'63          ', 138.0000,1,   1,   1,   1,1.02451, -10.2377, 1.06000, 0.92000, 1.06000, 0.92000
   64,'64          ', 138.0000,1,   1,   1,   1,1.02613,  -8.8647, 1.06000, 0.92000, 1.06000, 0.92000
   65,'65          ', 138.0000,1,   1,   1,   1,1.01813,  -5.5531, 1.06000, 0.92000, 1.06000, 0.92000
   66,'66          ', 345.0000,1,   1,   1,   1,1.01428,  -6.4689, 1.06000, 0.92000, 1.06000, 0.92000
   67,'67          ', 138.0000,1,   1,   1,   1,1.01888,  -8.3089, 1.06000, 0.92000, 1.06000, 0.92000
   68,'68          ', 138.0000,1,   1,   1,   1,1.01764,  -7.3152, 1.06000, 0.92000, 1.06000, 0.92000
   69,'69          ', 345.0000,2,   1,   1,   1,1.02000,  -2.0805, 1.10000, 0.98000, 1.10000, 0.98000
   70,'70          ', 138.0000,1,   1,   1,   1,1.01093,  -2.7838, 1.06000, 0.92000, 1.06000, 0.92000
   71,'71          ', 345.0000,1,   1,   1,   1,1.01626,  -6.1320, 1.06000, 0.92000, 1.06000, 0.92000
   72,'72          ', 138.0000,2,   1,   1,   1,1.02000,  -8.2175, 1.10000, 0.98000, 1.10000, 0.98000
   73,'73          ', 138.0000,1,   1,   1,   1,1.01842,  -8.3271, 1.06000, 0.92000, 1.06000, 0.92000
   74,'74          ', 345.0000,1,   1,   1,   1,1.02660,  -6.5280, 1.06000, 0.92000, 1.06000, 0.92000
   75,'75          ', 138.0000,1,   1,   1,   1,1.02946,  -8.5758, 1.06000, 0.92000, 1.06000, 0.92000
   76,'76          ', 345.0000,2,   1,   1,   1,1.02000,  -5.5043, 1.10000, 0.98000, 1.10000, 0.98000
   77,'77          ', 138.0000,1,   1,   1,   1,1.01271,  -9.8664, 1.06000, 0.92000, 1.06000, 0.92000
   78,'78          ', 345.0000,2,   1,   1,   1,1.03941, -15.6893, 1.10000, 0.98000, 1.10000, 0.98000
   79,'79          ', 345.0000,1,   1,   1,   1,1.06698, -19.5299, 1.06000, 0.92000, 1.06000, 0.92000
   80,'80          ', 345.0000,2,   1,   1,   1,1.02000, -13.5375, 1.10000, 0.98000, 1.10000, 0.98000
   81,'81          ', 345.0000,1,   1,   1,   1,1.02175, -13.6793, 1.06000, 0.92000, 1.06000, 0.92000
   82,'82          ', 345.0000,2,   1,   1,   1,1.02000, -11.1126, 1.10000, 0.98000, 1.10000, 0.98000
   83,'83          ', 345.0000,1,   1,   1,   1,1.02837, -10.4260, 1.06000, 0.92000, 1.06000, 0.92000
   84,'84          ', 138.0000,2,   1,   1,   1,1.02000,  -6.9762, 1.10000, 0.98000, 1.10000, 0.98000
   85,'85          ', 230.0000,1,   1,   1,   1,1.02345, -11.2857, 1.06000, 0.92000, 1.06000, 0.92000
   86,'86          ', 138.0000,1,   1,   1,   1,1.01769, -11.5589, 1.06000, 0.92000, 1.06000, 0.92000
   87,'87          ', 345.0000,1,   1,   1,   1,1.06493, -18.6271, 1.06000, 0.92000, 1.06000, 0.92000
   88,'88          ', 138.0000,1,   1,   1,   1,1.01717,  -9.3850, 1.06000, 0.92000, 1.06000, 0.92000
   89,'89          ', 138.0000,1,   1,   1,   1,0.98555, -13.0102, 1.06000, 0.92000, 1.06000, 0.92000
   90,'90          ', 230.0000,1,   1,   1,   1,1.01129,  -6.9402, 1.06000, 0.92000, 1.06000, 0.92000
   91,'91          ', 230.0000,1,   1,   1,   1,1.00287,  -8.2423, 1.06000, 0.92000, 1.06000, 0.92000
   92,'92          ', 345.0000,1,   1,   1,   1,1.02235,  -9.6439, 1.06000, 0.92000, 1.06000, 0.92000
   93,'93          ', 345.0000,1,   1,   1,   1,1.02637,  -9.8586, 1.06000, 0.92000, 1.06000, 0.92000
   94,'94          ', 138.0000,1,   1,   1,   1,1.02085, -10.9648, 1.06000, 0.92000, 1.06000, 0.92000
   95,'95          ', 138.0000,1,   1,   1,   1,1.02839, -11.8529, 1.06000, 0.92000, 1.06000, 0.92000
   96,'96          ', 138.0000,1,   1,   1,   1,1.02932, -11.7879, 1.06000, 0.92000, 1.06000, 0.92000
   97,'97          ', 345.0000,1,   1,   1,   1,1.02453, -10.1556, 1.06000, 0.92000, 1.06000, 0.92000
   98,'98          ', 345.0000,1,   1,   1,   1,1.01967,  -9.9586, 1.06000, 0.92000, 1.06000, 0.92000
   99,'99          ', 345.0000,1,   1,   1,   1,1.02594, -10.8622, 1.06000, 0.92000, 1.06000, 0.92000
  100,'100         ', 138.0000,1,   1,   1,   1,1.01768,  -7.3387, 1.06000, 0.92000, 1.06000, 0.92000
  101,'101         ', 345.0000,1,   1,   1,   1,1.02696, -10.1315, 1.06000, 0.92000, 1.06000, 0.92000
  102,'102         ', 138.0000,1,   1,   1,   1,1.02093, -11.7045, 1.06000, 0.92000, 1.06000, 0.92000
  103,'103         ', 138.0000,2,   1,   1,   1,1.02000,  -8.7386, 1.10000, 0.98000, 1.10000, 0.98000
  104,'104         ', 138.0000,1,   1,   1,   1,1.02270, -12.4082, 1.06000, 0.92000, 1.06000, 0.92000
  105,'105         ', 138.0000,1,   1,   1,   1,1.02247, -11.2277, 1.06000, 0.92000, 1.06000, 0.92000
  106,'106         ', 138.0000,1,   1,   1,   1,1.01879, -12.7131, 1.06000, 0.92000, 1.06000, 0.92000
  107,'107         ', 138.0000,1,   1,   1,   1,1.01901, -12.4642, 1.06000, 0.92000, 1.06000, 0.92000
  108,'108         ', 230.0000,1,   1,   1,   1,1.02369, -12.7712, 1.06000, 0.92000, 1.06000, 0.92000
  109,'109         ', 138.0000,1,   1,   1,   1,1.01989, -13.0299, 1.06000, 0.92000, 1.06000, 0.92000
  110,'110         ', 138.0000,1,   1,   1,   1,1.01768, -10.6249, 1.06000, 0.92000, 1.06000, 0.92000
  111,'111         ', 345.0000,1,   1,   1,   1,1.02587, -11.2126, 1.06000, 0.92000, 1.06000, 0.92000
  112,'112         ', 138.0000,1,   1,   1,   1,1.02451, -14.5049, 1.06000, 0.92000, 1.06000, 0.92000
  113,'113         ', 138.0000,1,   1,   1,   1,1.02293, -15.0993, 1.06000, 0.92000, 1.06000, 0.92000
  114,'114         ', 138.0000,1,   1,   1,   1,1.02528, -11.9053, 1.06000, 0.92000, 1.06000, 0.92000
  115,'115         ', 345.0000,1,   1,   1,   1,1.02449,  -9.3190, 1.06000, 0.92000, 1.06000, 0.92000
  116,'116         ', 230.0000,1,   1,   1,   1,1.01050, -11.2852, 1.06000, 0.92000, 1.06000, 0.92000
  117,'117         ', 138.0000,1,   1,   1,   1,1.01843, -11.8130, 1.06000, 0.92000, 1.06000, 0.92000
  118,'118         ', 138.0000,1,   1,   1,   1,1.02419, -11.6632, 1.06000, 0.92000, 1.06000, 0.92000
  119,'119         ', 138.0000,1,   1,   1,   1,1.02299, -12.3070, 1.06000, 0.92000, 1.06000, 0.92000
  120,'120         ', 230.0000,2,   1,   1,   1,1.02000, -10.8161, 1.10000, 0.98000, 1.10000, 0.98000
  121,'121         ', 230.0000,1,   1,   1,   1,1.01679, -11.1708, 1.06000, 0.92000, 1.06000, 0.92000
  122,'122         ', 138.0000,1,   1,   1,   1,1.01832, -13.0809, 1.06000, 0.92000, 1.06000, 0.92000
  123,'123         ', 230.0000,1,   1,   1,   1,1.01105, -10.9185, 1.06000, 0.92000, 1.06000, 0.92000
  124,'124         ', 230.0000,1,   1,   1,   1,1.01387, -13.7385, 1.06000, 0.92000, 1.06000, 0.92000
  125,'125         ', 138.0000,1,   1,   1,   1,1.01996, -13.7230, 1.06000, 0.92000, 1.06000, 0.92000
  126,'126         ', 230.0000,1,   1,   1,   1,1.02120, -13.0722, 1.06000, 0.92000, 1.06000, 0.92000
  127,'127         ', 230.0000,1,   1,   1,   1,1.01964, -13.4468, 1.06000, 0.92000, 1.06000, 0.92000
  128,'128         ', 138.0000,2,   1,   1,   1,1.02000, -10.9987, 1.10000, 0.98000, 1.10000, 0.98000
  129,'129         ', 138.0000,1,   1,   1,   1,1.01230, -14.1927, 1.06000, 0.92000, 1.06000, 0.92000
  130,'130         ', 138.0000,2,   1,   1,   1,1.02000, -11.8036, 1.10000, 0.98000, 1.10000, 0.98000
  131,'131         ', 138.0000,1,   1,   1,   1,1.02143, -14.4608, 1.06000, 0.92000, 1.06000, 0.92000
  132,'132         ', 230.0000,1,   1,   1,   1,1.02286, -12.0172, 1.06000, 0.92000, 1.06000, 0.92000
  133,'133         ', 230.0000,1,   1,   1,   1,1.02313, -11.2225, 1.06000, 0.92000, 1.06000, 0.92000
  134,'134         ', 230.0000,1,   1,   1,   1,1.02147, -12.4837, 1.06000, 0.92000, 1.06000, 0.92000
  135,'135         ', 345.0000,1,   1,   1,   1,1.02004, -11.4130, 1.06000, 0.92000, 1.06000, 0.92000
  136,'136         ', 138.0000,1,   1,   1,   1,1.02472, -12.0843, 1.06000, 0.92000, 1.06000, 0.92000
  137,'137         ', 345.0000,1,   1,   1,   1,1.01845, -10.9045, 1.06000, 0.92000, 1.06000, 0.92000
  138,'138         ', 345.0000,1,   1,   1,   1,1.02680, -11.0750, 1.06000, 0.92000, 1.06000, 0.92000
  139,'139         ', 345.0000,1,   1,   1,   1,1.04222,  -9.5945, 1.06000, 0.92000, 1.06000, 0.92000
  140,'140         ', 138.0000,1,   1,   1,   1,1.01684,  -6.2760, 1.06000, 0.92000, 1.06000, 0.92000
  141,'141         ', 345.0000,2,   1,   1,   1,1.02000,  -3.7577, 1.10000, 0.98000, 1.10000, 0.98000
  142,'142         ', 230.0000,1,   1,   1,   1,1.01614, -13.3784, 1.06000, 0.92000, 1.06000, 0.92000
  143,'143         ', 230.0000,2,   1,   1,   1,1.02000,  -9.8048, 1.10000, 0.98000, 1.10000, 0.98000
  144,'144         ', 230.0000,1,   1,   1,   1,1.01418, -10.7879, 1.06000, 0.92000, 1.06000, 0.92000
  145,'145         ', 138.0000,1,   1,   1,   1,1.00779, -13.1901, 1.06000, 0.92000, 1.06000, 0.92000
  146,'146         ', 345.0000,2,   1,   1,   1,1.02000, -10.4652, 1.10000, 0.98000, 1.10000, 0.98000
  147,'147         ', 138.0000,1,   1,   1,   1,1.02805, -12.7395, 1.06000, 0.92000, 1.06000, 0.92000
  148,'148         ', 345.0000,1,   1,   1,   1,1.02621,  -9.6722, 1.06000, 0.92000, 1.06000, 0.92000
  149,'149         ', 138.0000,2,   1,   1,   1,1.02000, -12.1641, 1.10000, 0.98000, 1.10000, 0.98000
  150,'150         ', 345.0000,1,   1,   1,   1,1.01591,  -9.3293, 1.06000, 0.92000, 1.06000, 0.92000
  151,'151         ', 345.0000,1,   1,   1,   1,1.01967, -10.7637, 1.06000, 0.92000, 1.06000, 0.92000
  152,'152         ', 138.0000,1,   1,   1,   1,1.02746, -14.6143, 1.06000, 0.92000, 1.06000, 0.92000
  153,'153         ', 345.0000,1,   1,   1,   1,1.02061, -11.6362, 1.06000, 0.92000, 1.06000, 0.92000
  154,'154         ', 230.0000,1,   1,   1,   1,1.02017, -13.8010, 1.06000, 0.92000, 1.06000, 0.92000
  155,'155         ', 138.0000,1,   1,   1,   1,1.00579, -14.2173, 1.06000, 0.92000, 1.06000, 0.92000
  156,'156         ', 345.0000,1,   1,   1,   1,1.02429, -10.2219, 1.06000, 0.92000, 1.06000, 0.92000
  157,'157         ', 138.0000,2,   1,   1,   1,1.02000,  -9.7243, 1.10000, 0.98000, 1.10000, 0.98000
  158,'158         ', 138.0000,1,   1,   1,   1,1.01777, -12.1912, 1.06000, 0.92000, 1.06000, 0.92000
  159,'159         ', 345.0000,1,   1,   1,   1,1.02960, -13.9246, 1.06000, 0.92000, 1.06000, 0.92000
  160,'160         ', 230.0000,1,   1,   1,   1,1.01430, -16.0869, 1.06000, 0.92000, 1.06000, 0.92000
  161,'161         ', 138.0000,1,   1,   1,   1,1.02558, -12.2011, 1.06000, 0.92000, 1.06000, 0.92000
  162,'162         ', 345.0000,2,   1,   1,   1,1.02000,  -8.8086, 1.10000, 0.98000, 1.10000, 0.98000
  163,'163         ', 230.0000,1,   1,   1,   1,1.02089, -11.6142, 1.06000, 0.92000, 1.06000, 0.92000
  164,'164         ', 138.0000,1,   1,   1,   1,1.01527, -12.0974, 1.06000, 0.92000, 1.06000, 0.92000
  165,'165         ', 230.0000,2,   1,   1,   1,1.02000,  -7.7322, 1.10000, 0.98000, 1.10000, 0.98000
  166,'166         ', 138.0000,2,   1,   1,   1,1.02000,  -9.2688, 1.10000, 0.98000, 1.10000, 0.98000
  167,'167         ', 345.0000,1,   1,   1,   1,1.04371, -14.9181, 1.06000, 0.92000, 1.06000, 0.92000
  168,'168         ', 230.0000,1,   1,   1,   1,1.02429,  -9.6538, 1.06000, 0.92000, 1.06000, 0.92000
  169,'169         ', 138.0000,1,   1,   1,   1,1.02111, -11.6336, 1.06000, 0.92000, 1.06000, 0.92000
  170,'170         ', 138.0000,1,   1,   1,   1,1.00439,  -8.2200, 1.06000, 0.92000, 1.06000, 0.92000
  171,'171         ', 138.0000,1,   1,   1,   1,1.01454,  -8.2517, 1.06000, 0.92000, 1.06000, 0.92000
  172,'172         ', 138.0000,1,   1,   1,   1,1.00863,  -5.5414, 1.06000, 0.92000, 1.06000, 0.92000
  173,'173         ', 138.0000,1,   1,   1,   1,1.00709,  -5.3431, 1.06000, 0.92000, 1.06000, 0.92000
  174,'174         ', 345.0000,1,   1,   1,   1,1.02240,  -7.4251, 1.06000, 0.92000, 1.06000, 0.92000
  175,'175         ', 138.0000,2,   1,   1,   1,1.02000,  -6.4118, 1.10000, 0.98000, 1.10000, 0.98000
  176,'176         ', 345.0000,2,   1,   1,   1,1.02000, -10.2336, 1.10000, 0.98000, 1.10000, 0.98000
  177,'177         ', 230.0000,1,   1,   1,   1,1.01549,  -8.5267, 1.06000, 0.92000, 1.06000, 0.92000
  178,'178         ', 138.0000,1,   1,   1,   1,1.01085, -10.4671, 1.06000, 0.92000, 1.06000, 0.92000
  179,'179         ', 138.0000,1,   1,   1,   1,1.01022, -10.5132, 1.06000, 0.92000, 1.06000, 0.92000
  180,'180         ', 345.0000,1,   1,   1,   1,1.02251,  -7.4650, 1.06000, 0.92000, 1.06000, 0.92000
  181,'181         ', 345.0000,1,   1,   1,   1,1.04187,  -4.8047, 1.06000, 0.92000, 1.06000, 0.92000
  182,'182         ', 345.0000,1,   1,   1,   1,1.02778,  -6.5127, 1.06000, 0.92000, 1.06000, 0.92000
  183,'183         ', 345.0000,1,   1,   1,   1,1.02396,  -4.5234, 1.06000, 0.92000, 1.06000, 0.92000
  184,'184         ', 230.0000,1,   1,   1,   1,1.01928,  -4.7649, 1.06000, 0.92000, 1.06000, 0.92000
  185,'185         ', 345.0000,1,   1,   1,   1,1.02071,  -5.3059, 1.06000, 0.92000, 1.06000, 0.92000
  186,'186         ', 345.0000,1,   1,   1,   1,1.02100,  -4.8620, 1.06000, 0.92000, 1.06000, 0.92000
  187,'187         ', 345.0000,1,   1,   1,   1,1.02414,  -3.3225, 1.06000, 0.92000, 1.06000, 0.92000
  188,'188         ', 345.0000,1,   1,   1,   1,1.02155,  -1.9183, 1.06000, 0.92000, 1.06000, 0.92000
  189,'189         ', 345.0000,1,   1,   1,   1,1.02156,  -2.2265, 1.06000, 0.92000, 1.06000, 0.92000
  190,'190         ', 345.0000,1,   1,   1,   1,1.02342,  -5.0767, 1.06000, 0.92000, 1.06000, 0.92000
  191,'191         ', 345.0000,1,   1,   1,   1,1.02192,  -7.4695, 1.06000, 0.92000, 1.06000, 0.92000
  192,'192         ', 230.0000,1,   1,   1,   1,1.02247, -10.3312, 1.06000, 0.92000, 1.06000, 0.92000
  193,'193         ', 345.0000,1,   1,   1,   1,1.02742,  -9.7519, 1.06000, 0.92000, 1.06000, 0.92000
  194,'194         ', 345.0000,1,   1,   1,   1,1.03021, -10.7735, 1.06000, 0.92000, 1.06000, 0.92000
  195,'195         ', 230.0000,1,   1,   1,   1,1.02924, -11.9095, 1.06000, 0.92000, 1.06000, 0.92000
  196,'196         ', 345.0000,1,   1,   1,   1,1.02807, -10.9980, 1.06000, 0.92000, 1.06000, 0.92000
  197,'197         ', 230.0000,1,   1,   1,   1,1.02825, -12.3866, 1.06000, 0.92000, 1.06000, 0.92000
  198,'198         ', 345.0000,1,   1,   1,   1,1.03199, -11.4425, 1.06000, 0.92000, 1.06000, 0.92000
  199,'199         ', 345.0000,1,   1,   1,   1,1.02626,  -8.9018, 1.06000, 0.92000, 1.06000, 0.92000
  200,'200         ', 345.0000,1,   1,   1,   1,1.02255,  -8.6069, 1.06000, 0.92000, 1.06000, 0.92000
...
0 / END OF BUS DATA, BEGIN LOAD DATA
    1,'1 ',1,   1,   1,     0.000,     0.000,     0.000,     0.000,     0.000,     0.000,   1,1
    2,'1 ',1,   1,   1,    71.819,    20.233,     0.000,     0.000,     0.000,     0.000,   1,1
    3,'1 ',1,   1,   1,     0.000,     0.000,     0.000,     0.000,     0.000,     0.000,   1,1
    4,'1 ',1,   1,   1,    53.554,    13.180,     0.000,     0.000,     0.000,     0.000,   1,1
    5,'1 ',1,   1,   1,    58.087,    21.016,     0.000,     0.000,     0.000,     0.000,   1,1
    6,'1 ',1,   1,   1,    52.800,    16.911,     0.000,     0.000,     0.000,     0.000,   1,1
    7,'1 ',1,   1,   1,    85.053,    32.998,     0.000,     0.000,     0.000,     0.000,   1,1
    8,'1 ',1,   1,   1,    75.265,    22.211,     0.000,     0.000,     0.000,     0.000,   1,1
    9,'1 ',1,   1,   1,     0.000,     0.000,     0.000,     0.000,     0.000,     0.000,   1,1
   10,'1 ',1,   1,   1,    54.455,    14.449,     0.000,     0.000,     0.000,     0.000,   1,1
   11,'1 ',1,   1,   1,     0.000,     0.000,     0.000,     0.000,     0.000,     0.000,   1,1
   12,'1 ',1,   1,   1,     1.626,     0.488,     0.000,     0.000,     0.000,     0.000,   1,1
   13,'1 ',1,   1,   1,     0.000,     0.000,     0.000,     0.000,     0.000,     0.000,   1,1
   14,'1 ',1,   1,   1,    73.193,    21.414,     0.000,     0.000,     0.000,     0.000,   1,1
   15,'1 ',1,   1,   1,    90.474,    20.799,     0.000,     0.000,     0.000,     0.000,   1,1
   16,'1 ',1,   1,   1,   109.544,    25.449,     0.000,     0.000,     0.000,     0.000,   1,1
   17,'1 ',1,   1,   1,    54.056,    15.807,     0.000,     0.000,     0.000,     0.000,   1,1
   18,'1 ',1,   1,   1,    63.086,    16.032,     0.000,     0.000,     0.000,     0.000,   1,1
   19,'1 ',1,   1,   1,    65.975,    18.958,     0.000,     0.000,     0.000,     0.000,   1,1
   20,'1 ',1,   1,   1,    63.515,    18.615,     0.000,     0.000,     0.000,     0.000,   1,1
   21,'1 ',1,   1,   1,    94.543,    23.954,     0.000,     0.000,     0.000,     0.000,   1,1
   22,'1 ',1,   1,   1,    83.692,    25.210,     0.000,     0.000,     0.000,     0.000,   1,1
   23,'1 ',1,   1,   1,    61.089,    16.854,     0.000,     0.000,     0.000,     0.000,   1,1
   24,'1 ',1,   1,   1,    71.364,    23.878,     0.000,     0.000,     0.000,     0.000,   1,1
   25,'1 ',1,   1,   1,    49.628,    11.671,     0.000,     0.000,     0.000,     0.000,   1,1
   26,'1 ',1,   1,   1,    60.116,    16.055,     0.000,     0.000,     0.000,     0.000,   1,1
   27,'1 ',1,   1,   1,    58.319,    15.711,     0.000,     0.000,     0.000,     0.000,   1,1
   28,'1 ',1,   1,   1,   100.557,    27.118,     0.000,     0.000,     0.000,     0.000,   1,1
   29,'1 ',1,   1,   1,    59.750,    15.741,     0.000,     0.000,     0.000,     0.000,   1,1
   30,'1 ',1,   1,   1,     0.000,     0.000,     0.000,     0.000,     0.000,     0.000,   1,1
   31,'1 ',1,   1,   1,     0.000,     0.000,     0.000,     0.000,     0.000,     0.000,   1,1
   32,'1 ',1,   1,   1,     0.000,     0.000,     0.000,     0.000,     0.000,     0.000,   1,1
   33,'1 ',1,   1,   1,    88.349,    22.674,     0.000,     0.000,     0.000,     0.000,   1,1
   34,'1 ',1,   1,   1,    50.899,    15.090,     0.000,     0.000,     0.000,     0.000,   1,1
   35,'1 ',1,   1,   1,     0.000,     0.000,     0.000,     0.000,     0.000,     0.000,   1,1
   36,'1 ',1,   1,   1,     0.000,     0.000,     0.000,     0.000,     0.000,     0.000,   1,1
   37,'1 ',1,   1,   1,     0.000,     0.000,     0.000,     0.000,     0.000,     0.000,   1,1
   38,'1 ',1,   1,   1,     0.000,     0.000,     0.000,     0.000,     0.000,     0.000,   1,1
   39,'1 ',1,   1,   1,    55.996,    16.570,     0.000,     0.000,     0.000,     0.000,   1,1
   40,'1 ',1,   1,   1,    56.963,    18.444,     0.000,     0.000,     0.000,     0.000,   1,1
   41,'1 ',1,   1,   1,    75.270,    19.304,     0.000,     0.000,     0.000,     0.000,   1,1
   42,'1 ',1,   1,   1,    83.933,    23.751,     0.000,     0.000,     0.000,     0.000,   1,1
   43,'1 ',1,   1,   1,    75.274,    22.183,     0.000,     0.000,     0.000,     0.000,   1,1
   44,'1 ',1,   1,   1,    49.840,    13.776,     0.000,     0.000,     0.000,     0.000,   1,1
   45,'1 ',1,   1,   1,    75.745,    19.221,     0.000,     0.000,     0.000,     0.000,   1,1
   46,'1 ',1,   1,   1,    67.646,    18.948,     0.000,     0.000,     0.000,     0.000,   1,1
   47,'1 ',1,   1,   1,    59.765,    17.110,     0.000,     0.000,     0.000,     0.000,   1,1
   48,'1 ',1,   1,   1,    73.587,    22.510,     0.000,     0.000,     0.000,     0.000,   1,1
   49,'1 ',1,   1,   1,    44.621,    14.820,     0.000,     0.000,     0.000,     0.000,   1,1
   50,'1 ',1,   1,   1,    71.331,    18.927,     0.000,     0.000,     0.000,     0.000,   1,1
   51,'1 ',1,   1,   1,    58.059,    19.482,     0.000,     0.000,     0.000,     0.000,   1,1
   52,'1 ',1,   1,   1,    77.011,    21.987,     0.000,     0.000,     0.000,     0.000,   1,1
   53,'1 ',1,   1,   1,   117.146,    29.087,     0.000,     0.000,     0.000,     0.000,   1,1
   54,'1 ',1,   1,   1,    46.483,    18.256,     0.000,     0.000,     0.000,     0.000,   1,1
   55,'1 ',1,   1,   1,    72.914,    19.220,     0.000,     0.000,     0.000,     0.000,   1,1
   56,'1 ',1,   1,   1,    83.349,    23.529,     0.000,     0.000,     0.000,     0.000,   1,1
   57,'1 ',1,   1,   1,    40.456,    12.898,     0.000,     0.000,     0.000,     0.000,   1,1
   58,'1 ',1,   1,   1,    95.162,    32.028,     0.000,     0.000,     0.000,     0.000,   1,1
   59,'1 ',1,   1,   1,    56.193,    20.115,     0.000,     0.000,     0.000,     0.000,   1,1
   60,'1 ',1,   1,   1,    64.887,    20.064,     0.000,     0.000,     0.000,     0.000,   1,1
   61,'1 ',1,   1,   1,    78.775,    24.807,     0.000,     0.000,     0.000,     0.000,   1,1
   62,'1 ',1,   1,   1,    73.572,    21.532,     0.000,     0.000,     0.000,     0.000,   1,1
   63,'1 ',1,   1,   1,    54.730,    17.234,     0.000,     0.000,     0.000,     0.000,   1,1
   64,'1 ',1,   1,   1,   123.926,    34.102,     0.000,     0.000,     0.000,     0.000,   1,1
   65,'1 ',1,   1,   1,    46.248,    14.262,     0.000,     0.000,     0.000,     0.000,   1,1
   66,'1 ',1,   1,   1,    54.207,    15.693,     0.000,     0.000,     0.000,     0.000,   1,1
   67,'1 ',1,   1,   1,    66.469,    18.998,     0.000,     0.000,     0.000,     0.000,   1,1
   68,'1 ',1,   1,   1,    81.247,    22.168,     0.000,     0.000,     0.000,     0.000,   1,1
   69,'1 ',1,   1,   1,    42.396,    14.458,     0.000,     0.000,     0.000,     0.000,   1,1
   70,'1 ',1,   1,   1,    62.725,    20.913,     0.000,     0.000,     0.000,     0.000,   1,1
   71,'1 ',1,   1,   1,    47.522,    16.446,     0.000,     0.000,     0.000,     0.000,   1,1
   72,'1 ',1,   1,   1,    41.632,    14.604,     0.000,     0.000,     0.000,     0.000,   1,1
   73,'1 ',1,   1,   1,    51.708,    17.214,     0.000,     0.000,     0.000,     0.000,   1,1
   74,'1 ',1,   1,   1,    56.779,    15.204,     0.000,     0.000,     0.000,     0.000,   1,1
   75,'1 ',1,   1,   1,    61.190,    19.477,     0.000,     0.000,     0.000,     0.000,   1,1
   76,'1 ',1,   1,   1,    86.175,    18.771,     0.000,     0.000,     0.000,     0.000,   1,1
   77,'1 ',1,   1,   1,    61.860,    16.684,     0.000,     0.000,     0.000,     0.000,   1,1
   78,'1 ',1,   1,   1,    77.145,    20.238,     0.000,     0.000,     0.000,     0.000,   1,1
   79,'1 ',1,   1,   1,   102.699,    27.108,     0.000,     0.000,     0.000,     0.000,   1,1
   80,'1 ',1,   1,   1,    83.342,    19.693,     0.000,     0.000,     0.000,     0.000,   1,1
   81,'1 ',1,   1,   1,    89.494,    20.750,     0.000,     0.000,     0.000,     0.000,   1,1
   82,'1 ',1,   1,   1,    59.673,    17.644,     0.000,     0.000,     0.000,     0.000,   1,1
   83,'1 ',1,   1,   1,    62.990,    19.939,     0.000,     0.000,     0.000,     0.000,   1,1
   84,'1 ',1,   1,   1,    47.173,    12.903,     0.000,     0.000,     0.000,     0.000,   1,1
   85,'1 ',1,   1,   1,    53.469,    16.064,     0.000,     0.000,     0.000,     0.000,   1,1
   86,'1 ',1,   1,   1,    86.567,    23.776,     0.000,     0.000,     0.000,     0.000,   1,1
   87,'1 ',1,   1,   1,    97.320,    27.320,     0.000,     0.000,     0.000,     0.000,   1,1
   88,'1 ',1,   1,   1,    75.420,    23.932,     0.000,     0.000,     0.000,     0.000,   1,1
   89,'1 ',1,   1,   1,    57.540,    17.446,     0.000,     0.000,     0.000,     0.000,   1,1
   90,'1 ',1,   1,   1,    49.325,    18.011,     0.000,     0.000,     0.000,     0.000,   1,1
   91,'1 ',1,   1,   1,    61.823,    17.138,     0.000,     0.000,     0.000,     0.000,   1,1
   92,'1 ',1,   1,   1,    57.590,    16.985,     0.000,     0.000,     0.000,     0.000,   1,1
   93,'1 ',1,   1,   1,    65.649,    17.366,     0.000,     0.000,     0.000,     0.000,   1,1
   94,'1 ',1,   1,   1,    82.894,    24.241,     0.000,     0.000,     0.000,     0.000,   1,1
   95,'1 ',1,   1,   1,    74.284,    20.706,     0.000,     0.000,     0.000,     0.000,   1,1
   96,'1 ',1,   1,   1,    86.396,    21.774,     0.000,     0.000,     0.000,     0.000,   1,1
   97,'1 ',1,   1,   1,    85.244,    22.877,     0.000,     0.000,     0.000,     0.000,   1,1
   98,'1 ',1,   1,   1,    88.100,    23.749,     0.000,     0.000,     0.000,     0.000,   1,1
   99,'1 ',1,   1,   1,    84.533,    20.595,     0.000,     0.000,     0.000,     0.000,   1,1
  100,'1 ',1,   1,   1,    63.967,    20.232,     0.000,     0.000,     0.000,     0.000,   1,1
  101,'1 ',1,   1,   1,    60.624,    18.876,     0.000,     0.000,     0.000,     0.000,   1,1
  102,'1 ',1,   1,   1,    38.512,    13.854,     0.000,     0.000,     0.000,     0.000,   1,1
  103,'1 ',1,   1,   1,    98.929,    24.603,     0.000,     0.000,     0.000,     0.000,   1,1
  104,'1 ',1,   1,   1,    70.774,    18.075,     0.000,     0.000,     0.000,     0.000,   1,1
  105,'1 ',1,   1,   1,    51.581,    14.418,     0.000,     0.000,     0.000,     0.000,   1,1
  106,'1 ',1,   1,   1,    51.307,    17.888,     0.000,     0.000,     0.000,     0.000,   1,1
  107,'1 ',1,   1,   1,    61.349,    16.408,     0.000,     0.000,     0.000,     0.000,   1,1
  108,'1 ',1,   1,   1,   104.847,    25.560,     0.000,     0.000,     0.000,     0.000,   1,1
  109,'1 ',1,   1,   1,    76.067,    24.028,     0.000,     0.000,     0.000,     0.000,   1,1
  110,'1 ',1,   1,   1,    39.585,    14.421,     0.000,     0.000,     0.000,     0.000,   1,1
  111,'1 ',1,   1,   1,    73.721,    20.645,     0.000,     0.000,     0.000,     0.000,   1,1
  112,'1 ',1,   1,   1,   101.336,    26.205,     0.000,     0.000,     0.000,     0.000,   1,1
  113,'1 ',1,   1,   1,    38.188,    13.004,     0.000,     0.000,     0.000,     0.000,   1,1
  114,'1 ',1,   1,   1,    40.237,    13.539,     0.000,     0.000,     0.000,     0.000,   1,1
  115,'1 ',1,   1,   1,    45.834,    15.228,     0.000,     0.000,     0.000,     0.000,   1,1
  116,'1 ',1,   1,   1,    90.980,    22.633,     0.000,     0.000,     0.000,     0.000,   1,1
  117,'1 ',1,   1,   1,    67.800,    17.545,     0.000,     0.000,     0.000,     0.000,   1,1
  118,'1 ',1,   1,   1,    39.463,    15.209,     0.000,     0.000,     0.000,     0.000,   1,1
  119,'1 ',1,   1,   1,    86.064,    23.415,     0.000,     0.000,     0.000,     0.000,   1,1
  120,'1 ',1,   1,   1,    51.557,    13.764,     0.000,     0.000,     0.000,     0.000,   1,1
  121,'1 ',1,   1,   1,    63.653,    16.304,     0.000,     0.000,     0.000,     0.000,   1,1
  122,'1 ',1,   1,   1,    51.650,    15.492,     0.000,     0.000,     0.000,     0.000,   1,1
  123,'1 ',1,   1,   1,    77.837,    22.492,     0.000,     0.000,     0.000,     0.000,   1,1
  124,'1 ',1,   1,   1,    78.982,    20.593,     0.000,     0.000,     0.000,     0.000,   1,1
  125,'1 ',1,   1,   1,    82.523,    22.559,     0.000,     0.000,     0.000,     0.000,   1,1
  126,'1 ',1,   1,   1,    67.950,    19.891,     0.000,     0.000,     0.000,     0.000,   1,1
  127,'1 ',1,   1,   1,    78.957,    18.823,     0.000,     0.000,     0.000,     0.000,   1,1
  128,'1 ',1,   1,   1,    86.153,    19.204,     0.000,     0.000,     0.000,     0.000,   1,1
  129,'1 ',1,   1,   1,    63.450,    17.172,     0.000,     0.000,     0.000,     0.000,   1,1
  130,'1 ',1,   1,   1,    69.230,    20.072,     0.000,     0.000,     0.000,     0.000,   1,1
  131,'1 ',1,   1,   1,    96.498,    22.076,     0.000,     0.000,     0.000,     0.000,   1,1
  132,'1 ',1,   1,   1,    88.887,    18.785,     0.000,     0.000,     0.000,     0.000,   1,1
  133,'1 ',1,   1,   1,    55.514,    15.542,     0.000,     0.000,     0.000,     0.000,   1,1
  134,'1 ',1,   1,   1,    66.473,    15.530,     0.000,     0.000,     0.000,     0.000,   1,1
  135,'1 ',1,   1,   1,    47.657,    16.273,     0.000,     0.000,     0.000,     0.000,   1,1
  136,'1 ',1,   1,   1,    59.452,    16.687,     0.000,     0.000,     0.000,     0.000,   1,1
  137,'1 ',1,   1,   1,    46.856,    17.552,     0.000,     0.000,     0.000,     0.000,   1,1
  138,'1 ',1,   1,   1,    84.086,    21.250,     0.000,     0.000,     0.000,     0.000,   1,1
  139,'1 ',1,   1,   1,    71.673,    19.493,     0.000,     0.000,     0.000,     0.000,   1,1
  140,'1 ',1,   1,   1,    96.712,    23.917,     0.000,     0.000,     0.000,     0.000,   1,1
  141,'1 ',1,   1,   1,    86.777,    22.314,     0.000,     0.000,     0.000,     0.000,   1,1
  142,'1 ',1,   1,   1,    56.054,    16.151,     0.000,     0.000,     0.000,     0.000,   1,1
  143,'1 ',1,   1,   1,    82.401,    22.491,     0.000,     0.000,     0.000,     0.000,   1,1
  144,'1 ',1,   1,   1,    98.860,    22.228,     0.000,     0.000,     0.000,     0.000,   1,1
  145,'1 ',1,   1,   1,    75.645,    19.810,     0.000,     0.000,     0.000,     0.000,   1,1
  146,'1 ',1,   1,   1,    80.827,    20.899,     0.000,     0.000,     0.000,     0.000,   1,1
  147,'1 ',1,   1,   1,    48.571,    13.598,     0.000,     0.000,     0.000,     0.000,   1,1
  148,'1 ',1,   1,   1,    57.781,    15.991,     0.000,     0.000,     0.000,     0.000,   1,1
  149,'1 ',1,   1,   1,   101.420,    22.537,     0.000,     0.000,     0.000,     0.000,   1,1
  150,'1 ',1,   1,   1,    71.513,    18.365,     0.000,     0.000,     0.000,     0.000,   1,1
  151,'1 ',1,   1,   1,    59.507,    18.054,     0.000,     0.000,     0.000,     0.000,   1,1
  152,'1 ',1,   1,   1,    47.620,    12.654,     0.000,     0.000,     0.000,     0.000,   1,1
  153,'1 ',1,   1,   1,    55.410,    17.926,     0.000,     0.000,     0.000,     0.000,   1,1
  154,'1 ',1,   1,   1,    69.114,    20.248,     0.000,     0.000,     0.000,     0.000,   1,1
  155,'1 ',1,   1,   1,    63.024,    20.403,     0.000,     0.000,     0.000,     0.000,   1,1
  156,'1 ',1,   1,   1,    64.595,    19.197,     0.000,     0.000,     0.000,     0.000,   1,1
  157,'1 ',1,   1,   1,    64.975,    20.940,     0.000,     0.000,     0.000,     0.000,   1,1
  158,'1 ',1,   1,   1,    64.548,    16.351,     0.000,     0.000,     0.000,     0.000,   1,1
  159,'1 ',1,   1,   1,    68.350,    18.934,     0.000,     0.000,     0.000,     0.000,   1,1
  160,'1 ',1,   1,   1,    81.753,    24.027,     0.000,     0.000,     0.000,     0.000,   1,1
  161,'1 ',1,   1,   1,    42.273,    12.717,     0.000,     0.000,     0.000,     0.000,   1,1
  162,'1 ',1,   1,   1,    61.397,    18.398,     0.000,     0.000,     0.000,     0.000,   1,1
  163,'1 ',1,   1,   1,    77.849,    25.100,     0.000,     0.000,     0.000,     0.000,   1,1
  164,'1 ',1,   1,   1,    57.566,    19.530,     0.000,     0.000,     0.000,     0.000,   1,1
  165,'1 ',1,   1,   1,    62.390,    17.671,     0.000,     0.000,     0.000,     0.000,   1,1
  166,'1 ',1,   1,   1,    58.405,    17.018,     0.000,     0.000,     0.000,     0.000,   1,1
  167,'1 ',1,   1,   1,    58.815,    16.222,     0.000,     0.000,     0.000,     0.000,   1,1
  168,'1 ',1,   1,   1,    38.145,    13.874,     0.000,     0.000,     0.000,     0.000,   1,1
  169,'1 ',1,   1,   1,    60.597,    19.230,     0.000,     0.000,     0.000,     0.000,   1,1
  170,'1 ',1,   1,   1,    69.767,    22.042,     0.000,     0.000,     0.000,     0.000,   1,1
  171,'1 ',1,   1,   1,    59.472,    16.525,     0.000,     0.000,     0.000,     0.000,   1,1
  172,'1 ',1,   1,   1,    70.279,    20.936,     0.000,     0.000,     0.000,     0.000,   1,1
  173,'1 ',1,   1,   1,    61.018,    18.123,     0.000,     0.000,     0.000,     0.000,   1,1
  174,'1 ',1,   1,   1,    75.699,    22.073,     0.000,     0.000,     0.000,     0.000,   1,1
  175,'1 ',1,   1,   1,    59.574,    19.585,     0.000,     0.000,     0.000,     0.000,   1,1
  176,'1 ',1,   1,   1,    74.745,    23.159,     0.000,     0.000,     0.000,     0.000,   1,1
  177,'1 ',1,   1,   1,   109.371,    35.813,     0.000,     0.000,     0.000,     0.000,   1,1
  178,'1 ',1,   1,   1,    55.527,    15.649,     0.000,     0.000,     0.000,     0.000,   1,1
  179,'1 ',1,   1,   1,     5.260,     1.523,     0.000,     0.000,     0.000,     0.000,   1,1
  180,'1 ',1,   1,   1,     7.923,     2.248,     0.000,     0.000,     0.000,     0.000,   1,1
  181,'1 ',1,   1,   1,     0.000,     0.000,     0.000,     0.000,     0.000,     0.000,   1,1
  182,'1 ',1,   1,   1,     0.000,     0.000,     0.000,     0.000,     0.000,     0.000,   1,1
  183,'1 ',1,   1,   1,     0.000,     0.000,     0.000,     0.000,     0.000,     0.000,   1,1
  184,'1 ',1,   1,   1,     0.000,     0.000,     0.000,     0.000,     0.000,     0.000,   1,1
  185,'1 ',1,   1,   1,     0.000,     0.000,     0.000,     0.000,     0.000,     0.000,   1,1
  186,'1 ',1,   1,   1,     0.000,     0.000,     0.000,     0.000,     0.000,     0.000,   1,1
  187,'1 ',1,   1,   1,     0.000,     0.000,     0.000,     0.000,     0.000,     0.000,   1,1
  188,'1 ',1,   1,   1,     0.000,     0.000,     0.000,     0.000,     0.000,     0.000,   1,1
  189,'1 ',1,   1,   1,     0.000,     0.000,     0.000,     0.000,     0.000,     0.000,   1,1
  190,'1 ',1,   1,   1,     0.000,     0.000,     0.000,     0.000,     0.000,     0.000,   1,1
  191,'1 ',1,   1,   1,     0.000,     0.000,     0.000,     0.000,     0.000,     0.000,   1,1
  192,'1 ',1,   1,   1,     0.000,     0.000,     0.000,     0.000,     0.000,     0.000,   1,1
  193,'1 ',1,   1,   1,     0.000,     0.000,     0.000,     0.000,     0.000,     0.000,   1,1
  194,'1 ',1,   1,   1,     0.000,     0.000,     0.000,     0.000,     0.000,     0.000,   1,1
  195,'1 ',1,   1,   1,     0.000,     0.000,     0.000,     0.000,     0.000,     0.000,   1,1
  196,'1 ',1,   1,   1,     0.000,     0.000,     0.000,     0.000,     0.000,     0.000,   1,1
  197,'1 ',1,   1,   1,     0.000,     0.000,     0.000,     0.000,     0.000,     0.000,   1,1
  198,'1 ',1,   1,   1,     0.000,     0.000,     0.000,     0.000,     0.000,     0.000,   1,1
  199,'1 ',1,   1,   1,     0.000,     0.000,     0.000,     0.000,     0.000,     0.000,   1,1
  200,'1 ',1,   1,   1,     0.000,     0.000,     0.000,     0.000,     0.000,     0.000,   1,1
...
0 / END OF LOAD DATA, BEGIN FIXED SHUNT DATA
0 / END OF FIXED SHUNT DATA, BEGIN GENERATOR DATA
    1,'1 ',   128.470,  -103.000,   103.000,  -103.000,1.02000,    0,   100.000,   0.00000,   1.00000,   0.00000,   0.00000,1.00000,1,  100.0,   338.000,     3.000,   1,1.0000,   0,1.0000,   0,1.0000,   0,1.0000,1, 1.0000
    3,'1 ',   260.741,   -66.919,   392.000,  -209.000,1.02000,    0,   100.000,   0.00000,   1.00000,   0.00000,   0.00000,1.00000,1,  100.0,   686.000,   298.000,   1,1.0000,   0,1.0000,   0,1.0000,   0,1.0000,0, 1.0000
    7,'1 ',   256.180,    24.647,   385.000,  -205.000,1.02000,    0,   100.000,   0.00000,   1.00000,   0.00000,   0.00000,1.00000,1,  100.0,   674.000,   139.000,   1,1.0000,   0,1.0000,   0,1.0000,   0,1.0000,0, 1.0000
    8,'1 ',   232.235,   -11.345,   349.000,  -186.000,1.02000,    0,   100.000,   0.00000,   1.00000,   0.00000,   0.00000,1.00000,1,  100.0,   611.000,   189.000,   1,1.0000,   0,1.0000,   0,1.0000,   0,1.0000,0, 1.0000
   10,'1 ',   934.537,   -17.438,  1298.000,  -692.000,1.02000,    0,   100.000,   0.00000,   1.00000,   0.00000,   0.00000,1.00000,1,  100.0,  2271.000,  1406.000,   1,1.0000,   0,1.0000,   0,1.0000,   0,1.0000,0, 1.0000
   24,'1 ',   205.628,    29.068,   309.000,  -165.000,1.02000,    0,   100.000,   0.00000,   1.00000,   0.00000,   0.00000,1.00000,1,  100.0,   541.000,   288.000,   1,1.0000,   0,1.0000,   0,1.0000,   0,1.0000,0, 1.0000
   26,'1 ',   114.027,   -91.000,   171.000,   -91.000,1.02000,    0,   100.000,   0.00000,   1.00000,   0.00000,   0.00000,1.00000,1,  100.0,   300.000,   120.000,   1,1.0000,   0,1.0000,   0,1.0000,   0,1.0000,0, 1.0000
   28,'1 ',   225.013,    18.278,   338.000,  -180.000,1.02000,    0,   100.000,   0.00000,   1.00000,   0.00000,   0.00000,1.00000,1,  100.0,   592.000,   216.000,   1,1.0000,   0,1.0000,   0,1.0000,   0,1.0000,0, 1.0000
   30,'1 ',    99.963,   -80.000,   150.000,   -80.000,1.02000,    0,   100.000,   0.00000,   1.00000,   0.00000,   0.00000,1.00000,1,  100.0,   263.000,   125.000,   1,1.0000,   0,1.0000,   0,1.0000,   0,1.0000,0, 1.0000
   31,'1 ',   304.071,    21.876,   457.000,  -244.000,1.02000,    0,   100.000,   0.00000,   1.00000,   0.00000,   0.00000,1.00000,1,  100.0,   800.000,   241.000,   1,1.0000,   0,1.0000,   0,1.0000,   0,1.0000,0, 1.0000
   32,'1 ',   259.601,     6.480,   390.000,  -208.000,1.02000,    0,   100.000,   0.00000,   1.00000,   0.00000,   0.00000,1.00000,1,  100.0,   683.000,   163.000,   1,1.0000,   0,1.0000,   0,1.0000,   0,1.0000,0, 1.0000
   33,'1 ',   252.379,    12.317,   379.000,  -202.000,1.02000,    0,   100.000,   0.00000,   1.00000,   0.00000,   0.00000,1.00000,1,  100.0,   664.000,   379.000,   1,1.0000,   0,1.0000,   0,1.0000,   0,1.0000,0, 1.0000
   34,'1 ',   470.170,    39.205,   707.000,  -377.000,1.02000,    0,   100.000,   0.00000,   1.00000,   0.00000,   0.00000,1.00000,1,  100.0,  1237.000,   295.000,   1,1.0000,   0,1.0000,   0,1.0000,   0,1.0000,0, 1.0000
   35,'1 ',   526.804,     8.296,   792.000,  -422.000,1.02000,    0,   100.000,   0.00000,   1.00000,   0.00000,   0.00000,1.00000,1,  100.0,  1386.000,   924.000,   1,1.0000,   0,1.0000,   0,1.0000,   0,1.0000,0, 1.0000
   36,'1 ',   223.493,    10.143,   336.000,  -179.000,1.02000,    0,   100.000,   0.00000,   1.00000,   0.00000,   0.00000,1.00000,1,  100.0,   588.000,   140.000,   1,1.0000,   0,1.0000,   0,1.0000,   0,1.0000,0, 1.0000
   37,'1 ',   215.511,   -28.624,   324.000,  -173.000,1.02000,    0,   100.000,   0.00000,   1.00000,   0.00000,   0.00000,1.00000,1,  100.0,   567.000,   100.000,   1,1.0000,   0,1.0000,   0,1.0000,   0,1.0000,0, 1.0000
   38,'1 ',   331.438,   -11.704,   498.000,  -266.000,1.02000,    0,   100.000,   0.00000,   1.00000,   0.00000,   0.00000,1.00000,1,  100.0,   872.000,   208.000,   1,1.0000,   0,1.0000,   0,1.0000,   0,1.0000,0, 1.0000
   49,'1 ',   230.714,     8.202,   347.000,  -185.000,1.02000,    0,   100.000,   0.00000,   1.00000,   0.00000,   0.00000,1.00000,1,  100.0,   607.000,   320.000,   1,1.0000,   0,1.0000,   0,1.0000,   0,1.0000,0, 1.0000
   52,'1 ',   624.107,   -52.465,   938.000,  -500.000,1.02000,    0,   100.000,   0.00000,   1.00000,   0.00000,   0.00000,1.00000,1,  100.0,  1642.000,   162.000,   1,1.0000,   0,1.0000,   0,1.0000,   0,1.0000,0, 1.0000
   54,'1 ',   207.529,     7.913,   312.000,  -166.000,1.02000,    0,   100.000,   0.00000,   1.00000,   0.00000,   0.00000,1.00000,1,  100.0,   546.000,   208.000,   1,1.0000,   0,1.0000,   0,1.0000,   0,1.0000,0, 1.0000
   56,'1 ',   276.705,   -13.667,   416.000,  -222.000,1.02000,    0,   100.000,   0.00000,   1.00000,   0.00000,   0.00000,1.00000,1,  100.0,   728.000,   416.000,   1,1.0000,   0,1.0000,   0,1.0000,   0,1.0000,0, 1.0000
   69,'1 ',   197.646,   -11.041,   297.000,  -158.000,1.02000,    0,   100.000,   0.00000,   1.00000,   0.00000,   0.00000,1.00000,1,  100.0,   520.000,   149.000,   1,1.0000,   0,1.0000,   0,1.0000,   0,1.0000,0, 1.0000
   72,'1 ',    99.963,    72.075,   150.000,   -80.000,1.02000,    0,   100.000,   0.00000,   1.00000,   0.00000,   0.00000,1.00000,1,  100.0,   263.000,    85.000,   1,1.0000,   0,1.0000,   0,1.0000,   0,1.0000,0, 1.0000
   76,'1 ',   335.239,   -35.636,   504.000,  -269.000,1.02000,    0,   100.000,   0.00000,   1.00000,   0.00000,   0.00000,1.00000,1,  100.0,   882.000,   435.000,   1,1.0000,   0,1.0000,   0,1.0000,   0,1.0000,0, 1.0000
   78,'1 ',   109.466,   -88.000,   165.000,   -88.000,1.02000,    0,   100.000,   0.00000,   1.00000,   0.00000,   0.00000,1.00000,1,  100.0,   288.000,   130.000,   1,1.0000,   0,1.0000,   0,1.0000,   0,1.0000,0, 1.0000
   80,'1 ',   219.692,  -129.329,   330.000,  -176.000,1.02000,    0,   100.000,   0.00000,   1.00000,   0.00000,   0.00000,1.00000,1,  100.0,   578.000,   113.000,   1,1.0000,   0,1.0000,   0,1.0000,   0,1.0000,0, 1.0000
   82,'1 ',   118.968,   -57.140,   179.000,   -95.000,1.02000,    0,   100.000,   0.00000,   1.00000,   0.00000,   0.00000,1.00000,1,  100.0,   313.000,   176.000,   1,1.0000,   0,1.0000,   0,1.0000,   0,1.0000,0, 1.0000
   84,'1 ',   337.519,   -68.539,   508.000,  -271.000,1.02000,    0,   100.000,   0.00000,   1.00000,   0.00000,   0.00000,1.00000,1,  100.0,   888.000,   169.000,   1,1.0000,   0,1.0000,   0,1.0000,   0,1.0000,0, 1.0000
  103,'1 ',   348.162,    -2.779,   523.000,  -279.000,1.02000,    0,   100.000,   0.00000,   1.00000,   0.00000,   0.00000,1.00000,1,  100.0,   916.000,   208.000,   1,1.0000,   0,1.0000,   0,1.0000,   0,1.0000,0, 1.0000
  120,'1 ',   321.175,    14.183,   483.000,  -258.000,1.02000,    0,   100.000,   0.00000,   1.00000,   0.00000,   0.00000,1.00000,1,  100.0,   845.000,   161.000,   1,1.0000,   0,1.0000,   0,1.0000,   0,1.0000,0, 1.0000
  128,'1 ',   143.674,    15.481,   216.000,  -115.000,1.02000,    0,   100.000,   0.00000,   1.00000,   0.00000,   0.00000,1.00000,1,  100.0,   378.000,   180.000,   1,1.0000,   0,1.0000,   0,1.0000,   0,1.0000,0, 1.0000
  130,'1 ',   101.484,    21.169,   153.000,   -81.000,1.02000,    0,   100.000,   0.00000,   1.00000,   0.00000,   0.00000,1.00000,1,  100.0,   267.000,   115.000,   1,1.0000,   0,1.0000,   0,1.0000,   0,1.0000,0, 1.0000
  141,'1 ',   642.731,   -23.740,   967.000,  -515.000,1.02000,    0,   100.000,   0.00000,   1.00000,   0.00000,   0.00000,1.00000,1,  100.0,  1691.000,   877.000,   1,1.0000,   0,1.0000,   0,1.0000,   0,1.0000,0, 1.0000
  143,'1 ',   115.167,    58.343,   173.000,   -92.000,1.02000,    0,   100.000,   0.00000,   1.00000,   0.00000,   0.00000,1.00000,1,  100.0,   303.000,   155.000,   1,1.0000,   0,1.0000,   0,1.0000,   0,1.0000,0, 1.0000
  146,'1 ',   230.714,    41.098,   347.000,  -185.000,1.02000,    0,   100.000,   0.00000,   1.00000,   0.00000,   0.00000,1.00000,1,  100.0,   607.000,   300.000,   1,1.0000,   0,1.0000,   0,1.0000,   0,1.0000,0, 1.0000
  149,'1 ',   104.144,    31.486,   157.000,   -83.000,1.02000,    0,   100.000,   0.00000,   1.00000,   0.00000,   0.00000,1.00000,1,  100.0,   274.000,   186.000,   1,1.0000,   0,1.0000,   0,1.0000,   0,1.0000,0, 1.0000
  157,'1 ',   198.027,    -3.211,   298.000,  -159.000,1.02000,    0,   100.000,   0.00000,   1.00000,   0.00000,   0.00000,1.00000,1,  100.0,   521.000,   288.000,   1,1.0000,   0,1.0000,   0,1.0000,   0,1.0000,0, 1.0000
  162,'1 ',   241.737,   -49.780,   363.000,  -194.000,1.02000,    0,   100.000,   0.00000,   1.00000,   0.00000,   0.00000,1.00000,1,  100.0,   636.000,   230.000,   1,1.0000,   0,1.0000,   0,1.0000,   0,1.0000,0, 1.0000
  165,'1 ',   495.636,    -2.463,   745.000,  -397.000,1.02000,    0,   100.000,   0.00000,   1.00000,   0.00000,   0.00000,1.00000,1,  100.0,  1304.000,   782.000,   1,1.0000,   0,1.0000,   0,1.0000,   0,1.0000,0, 1.0000
  166,'1 ',   315.474,   -22.422,   474.000,  -253.000,1.02000,    0,   100.000,   0.00000,   1.00000,   0.00000,   0.00000,1.00000,1,  100.0,   830.000,   277.000,   1,1.0000,   0,1.0000,   0,1.0000,   0,1.0000,0, 1.0000
  175,'1 ',   237.936,    -2.684,   358.000,  -191.000,1.02000,    0,   100.000,   0.00000,   1.00000,   0.00000,   0.00000,1.00000,1,  100.0,   626.000,   209.000,   1,1.0000,   0,1.0000,   0,1.0000,   0,1.0000,0, 1.0000
  176,'1 ',   101.484,    12.310,   153.000,   -81.000,1.02000,    0,   100.000,   0.00000,   1.00000,   0.00000,   0.00000,1.00000,1,  100.0,   267.000,    86.000,   1,1.0000,   0,1.0000,   0,1.0000,   0,1.0000,0, 1.0000
0 / END OF GENERATOR DATA, BEGIN BRANCH DATA
    1,     2,'1 ', 0.00598, 0.12062,1.98515, 414.51, 414.51, 414.51,  0.00000,  0.00000,  0.00000,  0.00000,1,1, 239.2,   1,1.0000,   0,1.0000,   0,1.0000,   0,1.0000
    2,    39,'1 ', 0.00868, 0.06020,0.52937, 530.03, 530.03, 530.03,  0.00000,  0.00000,  0.00000,  0.00000,1,1,  86.8,   1,1.0000,   0,1.0000,   0,1.0000,   0,1.0000
    2,   139,'1 ', 0.00339, 0.02318,0.20974, 530.03, 530.03, 530.03,  0.00000,  0.00000,  0.00000,  0.00000,1,1,  33.9,   1,1.0000,   0,1.0000,   0,1.0000,   0,1.0000
    2,   181,'1 ', 0.00761, 0.05275,0.46393, 530.03, 530.03, 530.03,  0.00000,  0.00000,  0.00000,  0.00000,1,1,  76.1,   1,1.0000,   0,1.0000,   0,1.0000,   0,1.0000
    2,   201,'1 ', 0.00274, 0.01875,0.16965, 530.03, 530.03, 530.03,  0.00000,  0.00000,  0.00000,  0.00000,1,1,  27.4,   1,1.0000,   0,1.0000,   0,1.0000,   0,1.0000
    3,    18,'1 ', 0.00383, 0.15813,0.09685, 316.20, 316.20, 316.20,  0.00000,  0.00000,  0.00000,  0.00000,1,1,  60.3,   1,1.0000,   0,1.0000,   0,1.0000,   0,1.0000
    4,    75,'1 ', 0.01684, 0.03812,0.00951, 107.32, 107.32, 107.32,  0.00000,  0.00000,  0.00000,  0.00000,1,1,   9.2,   1,1.0000,   0,1.0000,   0,1.0000,   0,1.0000
    5,     8,'1 ', 0.00296, 0.03933,0.08406, 578.83, 578.83, 578.83,  0.00000,  0.00000,  0.00000,  0.00000,1,1,  27.9,   1,1.0000,   0,1.0000,   0,1.0000,   0,1.0000
    5,   184,'1 ', 0.04502, 0.11101,0.17939, 178.87, 178.87, 178.87,  0.00000,  0.00000,  0.00000,  0.00000,1,1,  68.6,   1,1.0000,   0,1.0000,   0,1.0000,   0,1.0000
    5,   207,'1 ', 0.00112, 0.01328,0.03027, 541.39, 541.39, 541.39,  0.00000,  0.00000,  0.00000,  0.00000,1,1,   9.7,   1,1.0000,   0,1.0000,   0,1.0000,   0,1.0000
    6,     7,'1 ', 0.06200, 0.14575,0.03365, 107.32, 107.32, 107.32,  0.00000,  0.00000,  0.00000,  0.00000,1,1,  34.0,   1,1.0000,   0,1.0000,   0,1.0000,   0,1.0000
    6,    70,'1 ', 0.03364, 0.07769,0.01859, 107.32, 107.32, 107.32,  0.00000,  0.00000,  0.00000,  0.00000,1,1,  18.5,   1,1.0000,   0,1.0000,   0,1.0000,   0,1.0000
    8,    54,'1 ', 0.00033, 0.00508,0.01216, 665.28, 665.28, 665.28,  0.00000,  0.00000,  0.00000,  0.00000,1,1,   3.8,   1,1.0000,   0,1.0000,   0,1.0000,   0,1.0000
  187,     9,'1 ', 0.00684, 0.04742,0.41703, 530.03, 530.03, 530.03,  0.00000,  0.00000,  0.00000,  0.00000,1,1,  68.4,   1,1.0000,   0,1.0000,   0,1.0000,   0,1.0000
   10,    11,'1 ', 0.00032, 0.00856,0.00495, 566.01, 566.01, 566.01,  0.00000,  0.00000,  0.00000,  0.00000,1,1,   3.2,   1,1.0000,   0,1.0000,   0,1.0000,   0,1.0000
   10,    70,'1 ', 0.00580, 0.06727,0.02063, 324.83, 324.83, 324.83,  0.00000,  0.00000,  0.00000,  0.00000,1,1,  18.1,   1,1.0000,   0,1.0000,   0,1.0000,   0,1.0000
   11,   173,'1 ', 0.01667, 0.12408,0.03486, 237.35, 237.35, 237.35,  0.00000,  0.00000,  0.00000,  0.00000,1,1,  31.9,   1,1.0000,   0,1.0000,   0,1.0000,   0,1.0000
  188,    13,'1 ', 0.00011, 0.00195,0.02003,1045.73,1045.73,1045.73,  0.00000,  0.00000,  0.00000,  0.00000,1,1,   3.0,   1,1.0000,   0,1.0000,   0,1.0000,   0,1.0000
   13,   190,'1 ', 0.00085, 0.01791,0.26779,1060.07,1060.07,1060.07,  0.00000,  0.00000,  0.00000,  0.00000,1,1,  33.9,   1,1.0000,   0,1.0000,   0,1.0000,   0,1.0000
   14,    15,'1 ', 0.03611, 0.08904,0.14388, 178.87, 178.87, 178.87,  0.00000,  0.00000,  0.00000,  0.00000,1,1,  55.0,   1,1.0000,   0,1.0000,   0,1.0000,   0,1.0000
   14,   177,'1 ', 0.01882, 0.06776,0.11459, 229.46, 229.46, 229.46,  0.00000,  0.00000,  0.00000,  0.00000,1,1,  42.5,   1,1.0000,   0,1.0000,   0,1.0000,   0,1.0000
   15,    61,'1 ', 0.00413, 0.02750,0.05200, 353.36, 353.36, 353.36,  0.00000,  0.00000,  0.00000,  0.00000,1,1,  18.4,   1,1.0000,   0,1.0000,   0,1.0000,   0,1.0000
  184,    15,'1 ', 0.00343, 0.04204,0.08894, 541.39, 541.39, 541.39,  0.00000,  0.00000,  0.00000,  0.00000,1,1,  29.7,   1,1.0000,   0,1.0000,   0,1.0000,   0,1.0000
   16,   149,'1 ', 0.01423, 0.04695,0.01231, 137.68, 137.68, 137.68,  0.00000,  0.00000,  0.00000,  0.00000,1,1,  11.6,   1,1.0000,   0,1.0000,   0,1.0000,   0,1.0000
   17,    18,'1 ', 0.05670, 0.19450,0.04709, 137.68, 137.68, 137.68,  0.00000,  0.00000,  0.00000,  0.00000,1,1,  46.1,   1,1.0000,   0,1.0000,   0,1.0000,   0,1.0000
   17,   145,'1 ', 0.04673, 0.10452,0.02669, 107.32, 107.32, 107.32,  0.00000,  0.00000,  0.00000,  0.00000,1,1,  25.6,   1,1.0000,   0,1.0000,   0,1.0000,   0,1.0000
   19,    96,'1 ', 0.05510, 0.12952,0.02990, 107.32, 107.32, 107.32,  0.00000,  0.00000,  0.00000,  0.00000,1,1,  30.2,   1,1.0000,   0,1.0000,   0,1.0000,   0,1.0000
   19,   105,'1 ', 0.00053, 0.01276,0.00724, 522.03, 522.03, 522.03,  0.00000,  0.00000,  0.00000,  0.00000,1,1,   4.7,   1,1.0000,   0,1.0000,   0,1.0000,   0,1.0000
   19,   110,'1 ', 0.00509, 0.02371,0.00609, 173.53, 173.53, 173.53,  0.00000,  0.00000,  0.00000,  0.00000,1,1,   5.8,   1,1.0000,   0,1.0000,   0,1.0000,   0,1.0000
   19,   118,'1 ', 0.00064, 0.01345,0.00755, 474.70, 474.70, 474.70,  0.00000,  0.00000,  0.00000,  0.00000,1,1,   4.9,   1,1.0000,   0,1.0000,   0,1.0000,   0,1.0000
   19,   175,'1 ', 0.05620, 0.25162,0.07017, 173.53, 173.53, 173.53,  0.00000,  0.00000,  0.00000,  0.00000,1,1,  64.5,   1,1.0000,   0,1.0000,   0,1.0000,   0,1.0000
   21,   129,'1 ', 0.00698, 0.03501,0.01005, 187.39, 187.39, 187.39,  0.00000,  0.00000,  0.00000,  0.00000,1,1,   9.1,   1,1.0000,   0,1.0000,   0,1.0000,   0,1.0000
   21,   130,'1 ', 0.00738, 0.06070,0.01884, 261.01, 261.01, 261.01,  0.00000,  0.00000,  0.00000,  0.00000,1,1,  16.4,   1,1.0000,   0,1.0000,   0,1.0000,   0,1.0000
   22,    23,'1 ', 0.01398, 0.03448,0.05572, 178.87, 178.87, 178.87,  0.00000,  0.00000,  0.00000,  0.00000,1,1,  21.3,   1,1.0000,   0,1.0000,   0,1.0000,   0,1.0000
   23,    24,'1 ', 0.04301, 0.10605,0.17137, 178.87, 178.87, 178.87,  0.00000,  0.00000,  0.00000,  0.00000,1,1,  65.6,   1,1.0000,   0,1.0000,   0,1.0000,   0,1.0000
   23,    90,'1 ', 0.00690, 0.02037,0.03648, 206.75, 206.75, 206.75,  0.00000,  0.00000,  0.00000,  0.00000,1,1,  13.2,   1,1.0000,   0,1.0000,   0,1.0000,   0,1.0000
   23,    91,'1 ', 0.01279, 0.05439,0.09557, 262.53, 262.53, 262.53,  0.00000,  0.00000,  0.00000,  0.00000,1,1,  35.1,   1,1.0000,   0,1.0000,   0,1.0000,   0,1.0000
   24,   177,'1 ', 0.00208, 0.01428,0.02528, 353.36, 353.36, 353.36,  0.00000,  0.00000,  0.00000,  0.00000,1,1,   9.2,   1,1.0000,   0,1.0000,   0,1.0000,   0,1.0000
   25,   133,'1 ', 0.00613, 0.04868,0.09258, 395.58, 395.58, 395.58,  0.00000,  0.00000,  0.00000,  0.00000,1,1,  32.6,   1,1.0000,   0,1.0000,   0,1.0000,   0,1.0000
   25,   168,'1 ', 0.01816, 0.04527,0.07160, 178.87, 178.87, 178.87,  0.00000,  0.00000,  0.00000,  0.00000,1,1,  27.7,   1,1.0000,   0,1.0000,   0,1.0000,   0,1.0000
   26,    42,'1 ', 0.00714, 0.04949,0.43522, 530.03, 530.03, 530.03,  0.00000,  0.00000,  0.00000,  0.00000,1,1,  71.4,   1,1.0000,   0,1.0000,   0,1.0000,   0,1.0000
   26,    43,'1 ', 0.00133, 0.00911,0.08245, 530.03, 530.03, 530.03,  0.00000,  0.00000,  0.00000,  0.00000,1,1,  13.3,   1,1.0000,   0,1.0000,   0,1.0000,   0,1.0000
   26,   202,'1 ', 0.01045, 0.07245,0.63716, 530.03, 530.03, 530.03,  0.00000,  0.00000,  0.00000,  0.00000,1,1, 104.5,   1,1.0000,   0,1.0000,   0,1.0000,   0,1.0000
   27,   160,'1 ', 0.02217, 0.05468,0.08835, 178.87, 178.87, 178.87,  0.00000,  0.00000,  0.00000,  0.00000,1,1,  33.8,   1,1.0000,   0,1.0000,   0,1.0000,   0,1.0000
   28,    77,'1 ', 0.06656, 0.15647,0.03612, 107.32, 107.32, 107.32,  0.00000,  0.00000,  0.00000,  0.00000,1,1,  36.5,   1,1.0000,   0,1.0000,   0,1.0000,   0,1.0000
   28,    88,'1 ', 0.00116, 0.01860,0.00608, 418.29, 418.29, 418.29,  0.00000,  0.00000,  0.00000,  0.00000,1,1,   5.1,   1,1.0000,   0,1.0000,   0,1.0000,   0,1.0000
   29,    84,'1 ', 0.00955, 0.09168,0.02681, 283.00, 283.00, 283.00,  0.00000,  0.00000,  0.00000,  0.00000,1,1,  24.0,   1,1.0000,   0,1.0000,   0,1.0000,   0,1.0000
   39,    43,'1 ', 0.00577, 0.04003,0.35199, 530.03, 530.03, 530.03,  0.00000,  0.00000,  0.00000,  0.00000,1,1,  57.7,   1,1.0000,   0,1.0000,   0,1.0000,   0,1.0000
   40,    43,'1 ', 0.00360, 0.02314,0.23770, 530.03, 530.03, 530.03,  0.00000,  0.00000,  0.00000,  0.00000,1,1,  36.0,   1,1.0000,   0,1.0000,   0,1.0000,   0,1.0000
  202,    41,'1 ', 0.00271, 0.01880,0.16536, 530.03, 530.03, 530.03,  0.00000,  0.00000,  0.00000,  0.00000,1,1,  27.1,   1,1.0000,   0,1.0000,   0,1.0000,   0,1.0000
   42,   167,'1 ', 0.00687, 0.04934,0.40438, 530.03, 530.03, 530.03,  0.00000,  0.00000,  0.00000,  0.00000,1,1,  68.7,   1,1.0000,   0,1.0000,   0,1.0000,   0,1.0000
   44,    55,'1 ', 0.00742, 0.02703,0.04470, 229.46, 229.46, 229.46,  0.00000,  0.00000,  0.00000,  0.00000,1,1,  16.8,   1,1.0000,   0,1.0000,   0,1.0000,   0,1.0000
   45,    52,'1 ', 0.00089, 0.00836,0.07659, 652.53, 652.53, 652.53,  0.00000,  0.00000,  0.00000,  0.00000,1,1,  12.3,   1,1.0000,   0,1.0000,   0,1.0000,   0,1.0000
  206,    45,'1 ', 0.00042, 0.00286,0.02611, 530.03, 530.03, 530.03,  0.00000,  0.00000,  0.00000,  0.00000,1,1,   4.2,   1,1.0000,   0,1.0000,   0,1.0000,   0,1.0000
   45,   212,'1 ', 0.00103, 0.00976,0.08940, 652.53, 652.53, 652.53,  0.00000,  0.00000,  0.00000,  0.00000,1,1,  14.3,   1,1.0000,   0,1.0000,   0,1.0000,   0,1.0000
   46,    47,'1 ', 0.01683, 0.10628,0.02894, 212.01, 212.01, 212.01,  0.00000,  0.00000,  0.00000,  0.00000,1,1,  26.9,   1,1.0000,   0,1.0000,   0,1.0000,   0,1.0000
   47,    63,'1 ', 0.03810, 0.08957,0.02068, 107.32, 107.32, 107.32,  0.00000,  0.00000,  0.00000,  0.00000,1,1,  20.9,   1,1.0000,   0,1.0000,   0,1.0000,   0,1.0000
   48,   150,'1 ', 0.00352, 0.02444,0.21489, 530.03, 530.03, 530.03,  0.00000,  0.00000,  0.00000,  0.00000,1,1,  35.2,   1,1.0000,   0,1.0000,   0,1.0000,   0,1.0000
  182,    48,'1 ', 0.00342, 0.02370,0.20841, 530.03, 530.03, 530.03,  0.00000,  0.00000,  0.00000,  0.00000,1,1,  34.2,   1,1.0000,   0,1.0000,   0,1.0000,   0,1.0000
   49,    65,'1 ', 0.00180, 0.03771,0.02118, 474.70, 474.70, 474.70,  0.00000,  0.00000,  0.00000,  0.00000,1,1,  13.8,   1,1.0000,   0,1.0000,   0,1.0000,   0,1.0000
   50,    65,'1 ', 0.00526, 0.03751,0.01148, 237.35, 237.35, 237.35,  0.00000,  0.00000,  0.00000,  0.00000,1,1,  10.1,   1,1.0000,   0,1.0000,   0,1.0000,   0,1.0000
   51,    68,'1 ', 0.00406, 0.03734,0.01192, 283.00, 283.00, 283.00,  0.00000,  0.00000,  0.00000,  0.00000,1,1,  10.2,   1,1.0000,   0,1.0000,   0,1.0000,   0,1.0000
   51,    72,'1 ', 0.00071, 0.00719,0.00234, 304.04, 304.04, 304.04,  0.00000,  0.00000,  0.00000,  0.00000,1,1,   2.0,   1,1.0000,   0,1.0000,   0,1.0000,   0,1.0000
  183,    52,'1 ', 0.00205, 0.02164,0.20301, 707.51, 707.51, 707.51,  0.00000,  0.00000,  0.00000,  0.00000,1,1,  32.1,   1,1.0000,   0,1.0000,   0,1.0000,   0,1.0000
...